opendss/Lines_121144.dss
New	Line.121144_8917892490_OH	Bus1=121144.1.2.3	Bus2=8917892490.1.2.3	Geometry=OH3P_FR8_N56_OH_477_AAC_OH_336_AAC_ABCN	Phases=3	Length=84.17019445208435	Units=ft
New	Line.121144_216481517_OH	Bus1=121144.1.2.3	Bus2=216481517.1.2.3	Geometry=OH3P_FR8_N56_OH_477_AAC_OH_336_AAC_ABCN	Phases=3	Length=7582.054135897145	Units=ft
New	Line.121144_216453049_OH	Bus1=121144.1.2.3	Bus2=216453049.1.2.3	Geometry=OH3P_FR8_N56_OH_477_AAC_OH_336_AAC_ABCN	Phases=3	Length=15164.517331185822	Units=ft
New	Line.121144_216503010_OH	Bus1=121144.1.2.3	Bus2=216503010.1.2.3	Geometry=OH3P_FR8_N56_OH_477_AAC_OH_336_AAC_ABCN	Phases=3	Length=11823.821996764511	Units=ft
New	Line.121144_216393101_OH	Bus1=121144.1.2.3	Bus2=216393101.1.2.3	Geometry=OH3P_FR8_N56_OH_477_AAC_OH_336_AAC_ABCN	Phases=3	Length=13880.249023640174	Units=ft
New	Line.8917892490_511215004639_OH	Bus1=8917892490.1.2.3	Bus2=511215004639.1.2.3	Geometry=OH3P_FR8_N56_OH_477_AAC_OH_336_AAC_ABCN	Phases=3	Length=8.093124578677433e-09	Units=ft
New	Line.216481517_511215014966_OH	Bus1=216481517.1.2.3	Bus2=511215014966.1.2.3	Geometry=OH3P_FR8_N56_OH_477_AAC_OH_336_AAC_ABCN	Phases=3	Length=112.54168297495686	Units=ft
New	Line.216481517_511215014975_OH	Bus1=216481517.1.2.3	Bus2=511215014975.1.2.3	Geometry=OH3P_FR8_N56_OH_477_AAC_OH_336_AAC_ABCN	Phases=3	Length=46.284917425159485	Units=ft
New	Line.216453049_511215004877_OH	Bus1=216453049.1.2.3	Bus2=511215004877.1.2.3	Geometry=OH3P_FR8_N56_OH_477_AAC_OH_336_AAC_ABCN	Phases=3	Length=92.49431743068192	Units=ft
New	Line.216453049_511215000284_OH	Bus1=216453049.1.2.3	Bus2=511215000284.1.2.3	Geometry=OH3P_FR8_N56_OH_477_AAC_OH_336_AAC_ABCN	Phases=3	Length=4.138984928734871e-09	Units=ft
New	Line.216453049_511215005559_OH	Bus1=216453049.1.2.3	Bus2=511215005559.1.2.3	Geometry=OH3P_FR8_N56_OH_477_AAC_OH_336_AAC_ABCN	Phases=3	Length=251.59619396645863	Units=ft
New	Line.216503010_511215003291_OH	Bus1=216503010.1.2.3	Bus2=511215003291.1.2.3	Geometry=OH3P_FR8_N56_OH_477_AAC_OH_336_AAC_ABCN	Phases=3	Length=4.138064857396171e-09	Units=ft
New	Line.216503010_511215015164_OH	Bus1=216503010.1.2.3	Bus2=511215015164.1.2.3	Geometry=OH3P_FR8_N56_OH_477_AAC_OH_336_AAC_ABCN	Phases=3	Length=141.66927310933985	Units=ft
New	Line.216393101_511215003305_OH	Bus1=216393101.1.2.3	Bus2=511215003305.1.2.3	Geometry=OH3P_FR8_N56_OH_477_AAC_OH_336_AAC_ABCN	Phases=3	Length=164.04201748733186	Units=ft
New	Line.216393101_511215003411_OH	Bus1=216393101.1.2.3	Bus2=511215003411.1.2.3	Geometry=OH3P_FR8_N56_OH_477_AAC_OH_336_AAC_ABCN	Phases=3	Length=115.66106723416252	Units=ft
New	Line.216393101_216393099_OH	Bus1=216393101.1.2.3	Bus2=216393099.1.2.3	Geometry=OH3P_FR8_N56_OH_477_AAC_OH_336_AAC_ABCN	Phases=3	Length=157.01062376680792	Units=ft
New	Line.726781952_511215019186_OH	Bus1=726781952.1.2.3	Bus2=511215019186.1.2.3	Geometry=OH3P_FR8_N56_OH_477_AAC_OH_336_AAC_ABCN	Phases=3	Length=163.14512849225716	Units=ft
New	Line.726781952_511215019005_OH	Bus1=726781952.1.2.3	Bus2=511215019005.1.2.3	Geometry=OH3P_FR8_N56_OH_477_AAC_OH_336_AAC_ABCN	Phases=3	Length=274.64390055096067	Units=ft
New	Line.726781952_511215019136_OH	Bus1=726781952.1.2.3	Bus2=511215019136.1.2.3	Geometry=OH3P_FR8_N56_OH_477_AAC_OH_336_AAC_ABCN	Phases=3	Length=488.2459605885976	Units=ft
New	Line.511215019186_734843266_OH	Bus1=511215019186.1.2.3	Bus2=734843266.1.2.3	Geometry=OH3P_FR8_N56_OH_477_AAC_OH_336_AAC_ABCN	Phases=3	Length=308.05975275978767	Units=ft
New	Line.511215019186_T1_lv_511210207001728_OH	Bus1=511215019186_T1_lv.1.2.3	Bus2=511210207001728.1.2.3	Geometry=OH3P_FR8_N56_OH_477_AAC_OH_336_AAC_ABCN	Phases=3	Length=71.88754860099647	Units=ft
New	Line.511215019005_511215019004_OH	Bus1=511215019005.1.2.3	Bus2=511215019004.1.2.3	Geometry=OH3P_FR8_N56_OH_477_AAC_OH_336_AAC_ABCN	Phases=3	Length=164.17933104160372	Units=ft
New	Line.511215019005_T1_lv_511210207001896_OH	Bus1=511215019005_T1_lv.1.2.3	Bus2=511210207001896.1.2.3	Geometry=OH3P_FR8_N56_OH_477_AAC_OH_336_AAC_ABCN	Phases=3	Length=71.04171414014085	Units=ft
New	Line.511215019136_511215019135_OH	Bus1=511215019136.1.2.3	Bus2=511215019135.1.2.3	Geometry=OH3P_FR8_N56_OH_477_AAC_OH_336_AAC_ABCN	Phases=3	Length=164.71193545650908	Units=ft
New	Line.511215019136_T1_lv_51121020700189_OH	Bus1=511215019136_T1_lv.1.2.3	Bus2=511210207001893.1.2.3	Geometry=OH3P_FR8_N56_OH_477_AAC_OH_336_AAC_ABCN	Phases=3	Length=113.05513348042328	Units=ft
New	Line.216407571_511215015398_OH	Bus1=216407571.1.2.3	Bus2=511215015398.1.2.3	Geometry=OH3P_FR8_N56_OH_477_AAC_OH_336_AAC_ABCN	Phases=3	Length=163.0445803601785	Units=ft
New	Line.216407571_511215015503_OH	Bus1=216407571.1.2.3	Bus2=511215015503.1.2.3	Geometry=OH3P_FR8_N56_OH_477_AAC_OH_336_AAC_ABCN	Phases=3	Length=113.73901530641317	Units=ft
New	Line.216407571_511215015768_OH	Bus1=216407571.1.2.3	Bus2=511215015768.1.2.3	Geometry=OH3P_FR8_N56_OH_477_AAC_OH_336_AAC_ABCN	Phases=3	Length=162.26263596878078	Units=ft
New	Line.511215015398_216400763_OH	Bus1=511215015398.1.2.3	Bus2=216400763.1.2.3	Geometry=OH3P_FR8_N56_OH_477_AAC_OH_336_AAC_ABCN	Phases=3	Length=34.88378968798066	Units=ft
New	Line.511215015398_T1_lv_511210207002298_OH	Bus1=511215015398_T1_lv.1.2.3	Bus2=511210207002298.1.2.3	Geometry=OH3P_FR8_N56_OH_477_AAC_OH_336_AAC_ABCN	Phases=3	Length=65.8860801020512	Units=ft
New	Line.511215015503_511215015502_OH	Bus1=511215015503.1.2.3	Bus2=511215015502.1.2.3	Geometry=OH3P_FR8_N56_OH_477_AAC_OH_336_AAC_ABCN	Phases=3	Length=163.52881255572876	Units=ft
New	Line.511215015503_T1_lv_51121020700269_OH	Bus1=511215015503_T1_lv.1.2.3	Bus2=511210207002692.1.2.3	Geometry=OH3P_FR8_N56_OH_477_AAC_OH_336_AAC_ABCN	Phases=3	Length=32.235127045864296	Units=ft
New	Line.511215015503_T2_lv_51121020600_OH	Bus1=511215015503_T2_lv.1.2.3	Bus2=51121020600221.1.2.3	Geometry=OH3P_FR8_N56_OH_477_AAC_OH_336_AAC_ABCN	Phases=3	Length=61.85177622877766	Units=ft
New	Line.511215015768_511215015769_OH	Bus1=511215015768.1.2.3	Bus2=511215015769.1.2.3	Geometry=OH3P_FR8_N56_OH_477_AAC_OH_336_AAC_ABCN	Phases=3	Length=163.23323027826342	Units=ft
New	Line.511215015768_T1_lv_511210207002044_OH	Bus1=511215015768_T1_lv.1.2.3	Bus2=511210207002044.1.2.3	Geometry=OH3P_FR8_N56_OH_477_AAC_OH_336_AAC_ABCN	Phases=3	Length=89.32456626364568	Units=ft
New	Line.511215015965_511215015966_OH	Bus1=511215015965.1.2.3	Bus2=511215015966.1.2.3	Geometry=OH3P_FR8_N56_OH_477_AAC_OH_336_AAC_ABCN	Phases=3	Length=149.90386824005498	Units=ft
New	Line.511215015965_T1_lv_51121020600105_OH	Bus1=511215015965_T1_lv.1.2.3	Bus2=51121020600105.1.2.3	Geometry=OH3P_FR8_N56_OH_477_AAC_OH_336_AAC_ABCN	Phases=3	Length=24.614918187796885	Units=ft
New	Line.511215015966_216380494_OH	Bus1=511215015966.1.2.3	Bus2=216380494.1.2.3	Geometry=OH3P_FR8_N56_OH_477_AAC_OH_336_AAC_ABCN	Phases=3	Length=123.32300449201679	Units=ft
New	Line.511215015966_T1_lv_51121020600104_OH	Bus1=511215015966_T1_lv.1.2.3	Bus2=51121020600104.1.2.3	Geometry=OH3P_FR8_N56_OH_477_AAC_OH_336_AAC_ABCN	Phases=3	Length=89.1996107088743	Units=ft
New	Line.511215015966_T2_lv_51121020600177_OH	Bus1=511215015966_T2_lv.1.2.3	Bus2=51121020600177.1.2.3	Geometry=OH3P_FR8_N56_OH_477_AAC_OH_336_AAC_ABCN	Phases=3	Length=91.67058177160939	Units=ft
New	Line.216380494_511215015494_OH	Bus1=216380494.1.2.3	Bus2=511215015494.1.2.3	Geometry=OH3P_FR8_N56_OH_477_AAC_OH_336_AAC_ABCN	Phases=3	Length=31.701077239128182	Units=ft
New	Line.216380494_511215015496_OH	Bus1=216380494.1.2.3	Bus2=511215015496.1.2.3	Geometry=OH3P_FR8_N56_OH_477_AAC_OH_336_AAC_ABCN	Phases=3	Length=70.32518603665345	Units=ft
New	Line.734843940_511215009897_OH	Bus1=734843940.1.2.3	Bus2=511215009897.1.2.3	Geometry=OH3P_FR8_N56_OH_477_AAC_OH_336_AAC_ABCN	Phases=3	Length=3.28084e-12	Units=ft
New	Line.734843940_511215009908_OH	Bus1=734843940.1.2.3	Bus2=511215009908.1.2.3	Geometry=OH3P_FR8_N56_OH_477_AAC_OH_336_AAC_ABCN	Phases=3	Length=3.28084e-12	Units=ft
New	Line.734843940_511215019002_OH	Bus1=734843940.1.2.3	Bus2=511215019002.1.2.3	Geometry=OH3P_FR8_N56_OH_477_AAC_OH_336_AAC_ABCN	Phases=3	Length=319.935940230418	Units=ft
New	Line.511215009897_511215009898_OH	Bus1=511215009897.1.2.3	Bus2=511215009898.1.2.3	Geometry=OH3P_FR8_N56_OH_477_AAC_OH_336_AAC_ABCN	Phases=3	Length=163.63173018173583	Units=ft
New	Line.511215009897_T1_lv_5112102060039_OH	Bus1=511215009897_T1_lv.1.2.3	Bus2=5112102060039.1.2.3	Geometry=OH3P_FR8_N56_OH_477_AAC_OH_336_AAC_ABCN	Phases=3	Length=69.38732123363819	Units=ft
New	Line.511215009897_T2_lv_511210207001899_OH	Bus1=511215009897_T2_lv.1.2.3	Bus2=511210207001899.1.2.3	Geometry=OH3P_FR8_N56_OH_477_AAC_OH_336_AAC_ABCN	Phases=3	Length=58.43165078385875	Units=ft
New	Line.511215009908_726759274_OH	Bus1=511215009908.1.2.3	Bus2=726759274.1.2.3	Geometry=OH3P_FR8_N56_OH_477_AAC_OH_336_AAC_ABCN	Phases=3	Length=65.31539715710566	Units=ft
New	Line.511215009908_T1_lv_5112102060040_OH	Bus1=511215009908_T1_lv.1.2.3	Bus2=5112102060040.1.2.3	Geometry=OH3P_FR8_N56_OH_477_AAC_OH_336_AAC_ABCN	Phases=3	Length=30.35410616550826	Units=ft
New	Line.511215019002_511215019003_OH	Bus1=511215019002.1.2.3	Bus2=511215019003.1.2.3	Geometry=OH3P_FR8_N56_OH_477_AAC_OH_336_AAC_ABCN	Phases=3	Length=165.13399405404914	Units=ft
New	Line.511215019002_T1_lv_511210207001897_OH	Bus1=511215019002_T1_lv.1.2.3	Bus2=511210207001897.1.2.3	Geometry=OH3P_FR8_N56_OH_477_AAC_OH_336_AAC_ABCN	Phases=3	Length=23.405212318197016	Units=ft
New	Line.511215015974_511215015975_OH	Bus1=511215015974.1.2.3	Bus2=511215015975.1.2.3	Geometry=OH3P_FR8_N56_OH_477_AAC_OH_336_AAC_ABCN	Phases=3	Length=293.28900894124695	Units=ft
New	Line.511215015974_734844483_OH	Bus1=511215015974.1.2.3	Bus2=734844483.1.2.3	Geometry=OH3P_FR8_N56_OH_477_AAC_OH_336_AAC_ABCN	Phases=3	Length=175.0074038147466	Units=ft
New	Line.511215015974_T1_lv_51121020600125_OH	Bus1=511215015974_T1_lv.1.2.3	Bus2=51121020600125.1.2.3	Geometry=OH3P_FR8_N56_OH_477_AAC_OH_336_AAC_ABCN	Phases=3	Length=22.153781000528287	Units=ft
New	Line.511215015975_726759699_OH	Bus1=511215015975.1.2.3	Bus2=726759699.1.2.3	Geometry=OH3P_FR8_N56_OH_477_AAC_OH_336_AAC_ABCN	Phases=3	Length=33.56789901277975	Units=ft
New	Line.511215015975_T1_lv_51121020600124_OH	Bus1=511215015975_T1_lv.1.2.3	Bus2=51121020600124.1.2.3	Geometry=OH3P_FR8_N56_OH_477_AAC_OH_336_AAC_ABCN	Phases=3	Length=125.17260256557554	Units=ft
New	Line.511215015975_T2_lv_51121020600119_OH	Bus1=511215015975_T2_lv.1.2.3	Bus2=51121020600119.1.2.3	Geometry=OH3P_FR8_N56_OH_477_AAC_OH_336_AAC_ABCN	Phases=3	Length=95.10360797152721	Units=ft
New	Line.734844483_511215015977_OH	Bus1=734844483.1.2.3	Bus2=511215015977.1.2.3	Geometry=OH3P_FR8_N56_OH_477_AAC_OH_336_AAC_ABCN	Phases=3	Length=4.138318969142026e-09	Units=ft
New	Line.734844483_511215015982_OH	Bus1=734844483.1.2.3	Bus2=511215015982.1.2.3	Geometry=OH3P_FR8_N56_OH_477_AAC_OH_336_AAC_ABCN	Phases=3	Length=4.138318969142026e-09	Units=ft
New	Line.726759699_511215015976_OH	Bus1=726759699.1.2.3	Bus2=511215015976.1.2.3	Geometry=OH3P_FR8_N56_OH_477_AAC_OH_336_AAC_ABCN	Phases=3	Length=228.9890703424158	Units=ft
New	Line.726759699_511215009919_OH	Bus1=726759699.1.2.3	Bus2=511215009919.1.2.3	Geometry=OH3P_FR8_N56_OH_477_AAC_OH_336_AAC_ABCN	Phases=3	Length=3.28084e-12	Units=ft
New	Line.511215015976_734843330_OH	Bus1=511215015976.1.2.3	Bus2=734843330.1.2.3	Geometry=OH3P_FR8_N56_OH_477_AAC_OH_336_AAC_ABCN	Phases=3	Length=3.28084e-12	Units=ft
New	Line.511215015976_T1_lv_51121020600120_OH	Bus1=511215015976_T1_lv.1.2.3	Bus2=51121020600120.1.2.3	Geometry=OH3P_FR8_N56_OH_477_AAC_OH_336_AAC_ABCN	Phases=3	Length=151.23853691142656	Units=ft
New	Line.734843330_511215015981_OH	Bus1=734843330.1.2.3	Bus2=511215015981.1.2.3	Geometry=OH3P_FR8_N56_OH_477_AAC_OH_336_AAC_ABCN	Phases=3	Length=165.01080212000807	Units=ft
New	Line.734843330_511215009660_OH	Bus1=734843330.1.2.3	Bus2=511215009660.1.2.3	Geometry=OH3P_FR8_N56_OH_477_AAC_OH_336_AAC_ABCN	Phases=3	Length=157.06905773083093	Units=ft
New	Line.511215019049_734843483_OH	Bus1=511215019049.1.2.3	Bus2=734843483.1.2.3	Geometry=OH3P_FR8_N56_OH_477_AAC_OH_336_AAC_ABCN	Phases=3	Length=533.3239768130101	Units=ft
New	Line.511215019049_T1_lv_511210207001907_OH	Bus1=511215019049_T1_lv.1.2.3	Bus2=511210207001907.1.2.3	Geometry=OH3P_FR8_N56_OH_477_AAC_OH_336_AAC_ABCN	Phases=3	Length=95.95672177429411	Units=ft
New	Line.734843483_726763111_OH	Bus1=734843483.1.2.3	Bus2=726763111.1.2.3	Geometry=OH3P_FR8_N56_OH_477_AAC_OH_336_AAC_ABCN	Phases=3	Length=57.58108558533386	Units=ft
New	Line.734843483_511215009669_OH	Bus1=734843483.1.2.3	Bus2=511215009669.1.2.3	Geometry=OH3P_FR8_N56_OH_477_AAC_OH_336_AAC_ABCN	Phases=3	Length=109.52338056124088	Units=ft
New	Line.511215015977_511215015978_OH	Bus1=511215015977.1.2.3	Bus2=511215015978.1.2.3	Geometry=OH3P_FR8_N56_OH_477_AAC_OH_336_AAC_ABCN	Phases=3	Length=162.6990763778082	Units=ft
New	Line.511215015977_T1_lv_51121020600_OH	Bus1=511215015977_T1_lv.1.2.3	Bus2=51121020600132.1.2.3	Geometry=OH3P_FR8_N56_OH_477_AAC_OH_336_AAC_ABCN	Phases=3	Length=70.38248173410514	Units=ft
New	Line.511215015978_511215015979_OH	Bus1=511215015978.1.2.3	Bus2=511215015979.1.2.3	Geometry=OH3P_FR8_N56_OH_477_AAC_OH_336_AAC_ABCN	Phases=3	Length=162.6987199525032	Units=ft
New	Line.511215015978_T1_lv_51121020600129_OH	Bus1=511215015978_T1_lv.1.2.3	Bus2=51121020600129.1.2.3	Geometry=OH3P_FR8_N56_OH_477_AAC_OH_336_AAC_ABCN	Phases=3	Length=105.3359631437577	Units=ft
New	Line.511215015979_T1_lv_51121020600138_OH	Bus1=511215015979_T1_lv.1.2.3	Bus2=51121020600138.1.2.3	Geometry=OH3P_FR8_N56_OH_477_AAC_OH_336_AAC_ABCN	Phases=3	Length=52.870915554718735	Units=ft
New	Line.511215015980_511215015981_OH	Bus1=511215015980.1.2.3	Bus2=511215015981.1.2.3	Geometry=OH3P_FR8_N56_OH_477_AAC_OH_336_AAC_ABCN	Phases=3	Length=175.9665042469066	Units=ft
New	Line.511215015980_T1_lv_51121020600136_OH	Bus1=511215015980_T1_lv.1.2.3	Bus2=51121020600136.1.2.3	Geometry=OH3P_FR8_N56_OH_477_AAC_OH_336_AAC_ABCN	Phases=3	Length=41.489292099211255	Units=ft
New	Line.511215015981_T1_lv_51121020600130_OH	Bus1=511215015981_T1_lv.1.2.3	Bus2=51121020600130.1.2.3	Geometry=OH3P_FR8_N56_OH_477_AAC_OH_336_AAC_ABCN	Phases=3	Length=46.27541278510453	Units=ft
New	Line.511215015982_511215015983_OH	Bus1=511215015982.1.2.3	Bus2=511215015983.1.2.3	Geometry=OH3P_FR8_N56_OH_477_AAC_OH_336_AAC_ABCN	Phases=3	Length=163.65897031370662	Units=ft
New	Line.511215015982_T1_lv_51121020600127_OH	Bus1=511215015982_T1_lv.1.2.3	Bus2=51121020600127.1.2.3	Geometry=OH3P_FR8_N56_OH_477_AAC_OH_336_AAC_ABCN	Phases=3	Length=46.926153310107246	Units=ft
New	Line.511215015983_511215015984_OH	Bus1=511215015983.1.2.3	Bus2=511215015984.1.2.3	Geometry=OH3P_FR8_N56_OH_477_AAC_OH_336_AAC_ABCN	Phases=3	Length=164.28222786988593	Units=ft
New	Line.511215015983_T1_lv_51121020600128_OH	Bus1=511215015983_T1_lv.1.2.3	Bus2=51121020600128.1.2.3	Geometry=OH3P_FR8_N56_OH_477_AAC_OH_336_AAC_ABCN	Phases=3	Length=91.78869780714298	Units=ft
New	Line.511215015984_726766971_OH	Bus1=511215015984.1.2.3	Bus2=726766971.1.2.3	Geometry=OH3P_FR8_N56_OH_477_AAC_OH_336_AAC_ABCN	Phases=3	Length=51.69886662767044	Units=ft
New	Line.511215015984_T1_lv_51121020600126_OH	Bus1=511215015984_T1_lv.1.2.3	Bus2=51121020600126.1.2.3	Geometry=OH3P_FR8_N56_OH_477_AAC_OH_336_AAC_ABCN	Phases=3	Length=22.095517914063795	Units=ft
New	Line.726766971_511215016008_OH	Bus1=726766971.1.2.3	Bus2=511215016008.1.2.3	Geometry=OH3P_FR8_N56_OH_477_AAC_OH_336_AAC_ABCN	Phases=3	Length=18.497590366137157	Units=ft
New	Line.511215015487_6490057698_OH	Bus1=511215015487.1.2.3	Bus2=6490057698.1.2.3	Geometry=OH3P_FR8_N56_OH_477_AAC_OH_336_AAC_ABCN	Phases=3	Length=3.28084e-12	Units=ft
New	Line.511215015487_511215015488_OH	Bus1=511215015487.1.2.3	Bus2=511215015488.1.2.3	Geometry=OH3P_FR8_N56_OH_477_AAC_OH_336_AAC_ABCN	Phases=3	Length=174.60342151704938	Units=ft
New	Line.511215015487_T1_lv_51121020600166_OH	Bus1=511215015487_T1_lv.1.2.3	Bus2=51121020600166.1.2.3	Geometry=OH3P_FR8_N56_OH_477_AAC_OH_336_AAC_ABCN	Phases=3	Length=34.4639720553832	Units=ft
New	Line.511215015487_T2_lv_511210207002727_OH	Bus1=511215015487_T2_lv.1.2.3	Bus2=511210207002727.1.2.3	Geometry=OH3P_FR8_N56_OH_477_AAC_OH_336_AAC_ABCN	Phases=3	Length=185.8746296231366	Units=ft
New	Line.6490057698_511215009912_OH	Bus1=6490057698.1.2.3	Bus2=511215009912.1.2.3	Geometry=OH3P_FR8_N56_OH_477_AAC_OH_336_AAC_ABCN	Phases=3	Length=3.28084e-12	Units=ft
New	Line.6490057698_511215009656_OH	Bus1=6490057698.1.2.3	Bus2=511215009656.1.2.3	Geometry=OH3P_FR8_N56_OH_477_AAC_OH_336_AAC_ABCN	Phases=3	Length=146.44458889597092	Units=ft
New	Line.511215015488_511215015489_OH	Bus1=511215015488.1.2.3	Bus2=511215015489.1.2.3	Geometry=OH3P_FR8_N56_OH_477_AAC_OH_336_AAC_ABCN	Phases=3	Length=174.60305591356848	Units=ft
New	Line.511215015488_T1_lv_51121020700230_OH	Bus1=511215015488_T1_lv.1.2.3	Bus2=511210207002302.1.2.3	Geometry=OH3P_FR8_N56_OH_477_AAC_OH_336_AAC_ABCN	Phases=3	Length=66.01669384086188	Units=ft
New	Line.511215015489_511215015490_OH	Bus1=511215015489.1.2.3	Bus2=511215015490.1.2.3	Geometry=OH3P_FR8_N56_OH_477_AAC_OH_336_AAC_ABCN	Phases=3	Length=168.99571154654322	Units=ft
New	Line.511215015489_T1_lv_51121020600168_OH	Bus1=511215015489_T1_lv.1.2.3	Bus2=51121020600168.1.2.3	Geometry=OH3P_FR8_N56_OH_477_AAC_OH_336_AAC_ABCN	Phases=3	Length=35.27750466019668	Units=ft
New	Line.511215015490_511215015491_OH	Bus1=511215015490.1.2.3	Bus2=511215015491.1.2.3	Geometry=OH3P_FR8_N56_OH_477_AAC_OH_336_AAC_ABCN	Phases=3	Length=158.12635555370844	Units=ft
New	Line.511215015490_T1_lv_51121020600169_OH	Bus1=511215015490_T1_lv.1.2.3	Bus2=51121020600169.1.2.3	Geometry=OH3P_FR8_N56_OH_477_AAC_OH_336_AAC_ABCN	Phases=3	Length=137.46998925750637	Units=ft
New	Line.511215015491_511215015492_OH	Bus1=511215015491.1.2.3	Bus2=511215015492.1.2.3	Geometry=OH3P_FR8_N56_OH_477_AAC_OH_336_AAC_ABCN	Phases=3	Length=157.49064183139768	Units=ft
New	Line.511215015491_T1_lv_5112102060017_OH	Bus1=511215015491_T1_lv.1.2.3	Bus2=51121020600171.1.2.3	Geometry=OH3P_FR8_N56_OH_477_AAC_OH_336_AAC_ABCN	Phases=3	Length=56.59497580861636	Units=ft
New	Line.511215015492_511215015493_OH	Bus1=511215015492.1.2.3	Bus2=511215015493.1.2.3	Geometry=OH3P_FR8_N56_OH_477_AAC_OH_336_AAC_ABCN	Phases=3	Length=156.65685085164125	Units=ft
New	Line.511215015492_T1_lv_511210207002305_OH	Bus1=511215015492_T1_lv.1.2.3	Bus2=511210207002305.1.2.3	Geometry=OH3P_FR8_N56_OH_477_AAC_OH_336_AAC_ABCN	Phases=3	Length=48.43410068839803	Units=ft
New	Line.511215015493_511215015494_OH	Bus1=511215015493.1.2.3	Bus2=511215015494.1.2.3	Geometry=OH3P_FR8_N56_OH_477_AAC_OH_336_AAC_ABCN	Phases=3	Length=156.55944405382488	Units=ft
New	Line.511215015493_T1_lv_5112102060017_OH	Bus1=511215015493_T1_lv.1.2.3	Bus2=51121020600172.1.2.3	Geometry=OH3P_FR8_N56_OH_477_AAC_OH_336_AAC_ABCN	Phases=3	Length=105.21094256324653	Units=ft
New	Line.511215015494_T1_lv_511210207002306_OH	Bus1=511215015494_T1_lv.1.2.3	Bus2=511210207002306.1.2.3	Geometry=OH3P_FR8_N56_OH_477_AAC_OH_336_AAC_ABCN	Phases=3	Length=76.00655602090025	Units=ft
New	Line.511215015495_511215015496_OH	Bus1=511215015495.1.2.3	Bus2=511215015496.1.2.3	Geometry=OH3P_FR8_N56_OH_477_AAC_OH_336_AAC_ABCN	Phases=3	Length=164.18985640187944	Units=ft
New	Line.511215015495_T1_lv_511210207002308_OH	Bus1=511215015495_T1_lv.1.2.3	Bus2=511210207002308.1.2.3	Geometry=OH3P_FR8_N56_OH_477_AAC_OH_336_AAC_ABCN	Phases=3	Length=16.03548963459388	Units=ft
New	Line.511215015496_T1_lv_511210207002307_OH	Bus1=511215015496_T1_lv.1.2.3	Bus2=511210207002307.1.2.3	Geometry=OH3P_FR8_N56_OH_477_AAC_OH_336_AAC_ABCN	Phases=3	Length=53.079274842200114	Units=ft
New	Line.511215015496_T2_lv_51121020600178_OH	Bus1=511215015496_T2_lv.1.2.3	Bus2=51121020600178.1.2.3	Geometry=OH3P_FR8_N56_OH_477_AAC_OH_336_AAC_ABCN	Phases=3	Length=69.70091239493605	Units=ft
New	Line.511215016007_511215016008_OH	Bus1=511215016007.1.2.3	Bus2=511215016008.1.2.3	Geometry=OH3P_FR8_N56_OH_477_AAC_OH_336_AAC_ABCN	Phases=3	Length=163.82279257112447	Units=ft
New	Line.511215016007_T1_lv_51121020600154_OH	Bus1=511215016007_T1_lv.1.2.3	Bus2=51121020600154.1.2.3	Geometry=OH3P_FR8_N56_OH_477_AAC_OH_336_AAC_ABCN	Phases=3	Length=54.650265838712095	Units=ft
New	Line.511215016008_T1_lv_5112102060015_OH	Bus1=511215016008_T1_lv.1.2.3	Bus2=51121020600153.1.2.3	Geometry=OH3P_FR8_N56_OH_477_AAC_OH_336_AAC_ABCN	Phases=3	Length=9.465235491167961	Units=ft
New	Line.511215015499_511215015500_OH	Bus1=511215015499.1.2.3	Bus2=511215015500.1.2.3	Geometry=OH3P_FR8_N56_OH_477_AAC_OH_336_AAC_ABCN	Phases=3	Length=165.4256473015617	Units=ft
New	Line.511215015499_T1_lv_511210207001930_OH	Bus1=511215015499_T1_lv.1.2.3	Bus2=511210207001930.1.2.3	Geometry=OH3P_FR8_N56_OH_477_AAC_OH_336_AAC_ABCN	Phases=3	Length=117.5592519180123	Units=ft
New	Line.511215015499_T2_lv_511210207001879_OH	Bus1=511215015499_T2_lv.1.2.3	Bus2=511210207001879.1.2.3	Geometry=OH3P_FR8_N56_OH_477_AAC_OH_336_AAC_ABCN	Phases=3	Length=278.85979458317104	Units=ft
New	Line.511215015500_511215015501_OH	Bus1=511215015500.1.2.3	Bus2=511215015501.1.2.3	Geometry=OH3P_FR8_N56_OH_477_AAC_OH_336_AAC_ABCN	Phases=3	Length=163.0483779419838	Units=ft
New	Line.511215015500_T1_lv_511210207001927_OH	Bus1=511215015500_T1_lv.1.2.3	Bus2=511210207001927.1.2.3	Geometry=OH3P_FR8_N56_OH_477_AAC_OH_336_AAC_ABCN	Phases=3	Length=41.63295935430567	Units=ft
New	Line.511215015501_511215015502_OH	Bus1=511215015501.1.2.3	Bus2=511215015502.1.2.3	Geometry=OH3P_FR8_N56_OH_477_AAC_OH_336_AAC_ABCN	Phases=3	Length=163.87791080987677	Units=ft
New	Line.511215015501_T1_lv_511210207001929_OH	Bus1=511215015501_T1_lv.1.2.3	Bus2=511210207001929.1.2.3	Geometry=OH3P_FR8_N56_OH_477_AAC_OH_336_AAC_ABCN	Phases=3	Length=62.76971008552263	Units=ft
New	Line.511215015502_T1_lv_511210207001928_OH	Bus1=511215015502_T1_lv.1.2.3	Bus2=511210207001928.1.2.3	Geometry=OH3P_FR8_N56_OH_477_AAC_OH_336_AAC_ABCN	Phases=3	Length=8.930830414057725	Units=ft
New	Line.726763111_511215009673_OH	Bus1=726763111.1.2.3	Bus2=511215009673.1.2.3	Geometry=OH3P_FR8_N56_OH_477_AAC_OH_336_AAC_ABCN	Phases=3	Length=135.0108979873323	Units=ft
New	Line.726763111_511215009926_OH	Bus1=726763111.1.2.3	Bus2=511215009926.1.2.3	Geometry=OH3P_FR8_N56_OH_477_AAC_OH_336_AAC_ABCN	Phases=3	Length=189.1425975843129	Units=ft
New	Line.511215009669_T1_lv_5112102060035_OH	Bus1=511215009669_T1_lv.1.2.3	Bus2=5112102060035.1.2.3	Geometry=OH3P_FR8_N56_OH_477_AAC_OH_336_AAC_ABCN	Phases=3	Length=41.39421997078481	Units=ft
New	Line.511215009669_T2_lv_51121020700204_OH	Bus1=511215009669_T2_lv.1.2.3	Bus2=511210207002043.1.2.3	Geometry=OH3P_FR8_N56_OH_477_AAC_OH_336_AAC_ABCN	Phases=3	Length=96.47087043588708	Units=ft
New	Line.511215009669_T3_lv_5112102060058_OH	Bus1=511215009669_T3_lv.1.2.3	Bus2=5112102060058.1.2.3	Geometry=OH3P_FR8_N56_OH_477_AAC_OH_336_AAC_ABCN	Phases=3	Length=5.3264576252548235	Units=ft
New	Line.511215009673_734843861_OH	Bus1=511215009673.1.2.3	Bus2=734843861.1.2.3	Geometry=OH3P_FR8_N56_OH_477_AAC_OH_336_AAC_ABCN	Phases=3	Length=3.28084e-12	Units=ft
New	Line.511215009673_T1_lv_5112102060036_OH	Bus1=511215009673_T1_lv.1.2.3	Bus2=5112102060036.1.2.3	Geometry=OH3P_FR8_N56_OH_477_AAC_OH_336_AAC_ABCN	Phases=3	Length=99.35921525704305	Units=ft
New	Line.511215009926_511215009925_OH	Bus1=511215009926.1.2.3	Bus2=511215009925.1.2.3	Geometry=OH3P_FR8_N56_OH_477_AAC_OH_336_AAC_ABCN	Phases=3	Length=163.58596308876142	Units=ft
New	Line.511215009926_T1_lv_5112102060056_OH	Bus1=511215009926_T1_lv.1.2.3	Bus2=5112102060056.1.2.3	Geometry=OH3P_FR8_N56_OH_477_AAC_OH_336_AAC_ABCN	Phases=3	Length=81.09021245359563	Units=ft
New	Line.511215009898_734843861_OH	Bus1=511215009898.1.2.3	Bus2=734843861.1.2.3	Geometry=OH3P_FR8_N56_OH_477_AAC_OH_336_AAC_ABCN	Phases=3	Length=110.02473684670142	Units=ft
New	Line.511215009898_T1_lv_511210207002116_OH	Bus1=511215009898_T1_lv.1.2.3	Bus2=511210207002116.1.2.3	Geometry=OH3P_FR8_N56_OH_477_AAC_OH_336_AAC_ABCN	Phases=3	Length=87.29761324547577	Units=ft
New	Line.511215009898_T2_lv_5112102060037_OH	Bus1=511215009898_T2_lv.1.2.3	Bus2=5112102060037.1.2.3	Geometry=OH3P_FR8_N56_OH_477_AAC_OH_336_AAC_ABCN	Phases=3	Length=30.782830815099697	Units=ft
New	Line.734843861_511215009903_OH	Bus1=734843861.1.2.3	Bus2=511215009903.1.2.3	Geometry=OH3P_FR8_N56_OH_477_AAC_OH_336_AAC_ABCN	Phases=3	Length=154.10755183682818	Units=ft
New	Line.511215009899_511215009900_OH	Bus1=511215009899.1.2.3	Bus2=511215009900.1.2.3	Geometry=OH3P_FR8_N56_OH_477_AAC_OH_336_AAC_ABCN	Phases=3	Length=655.8592931642692	Units=ft
New	Line.511215009899_T1_lv_5112102070019_OH	Bus1=511215009899_T1_lv.1.2.3	Bus2=511210207001912.1.2.3	Geometry=OH3P_FR8_N56_OH_477_AAC_OH_336_AAC_ABCN	Phases=3	Length=43.01362517235242	Units=ft
New	Line.511215009899_T2_lv_5112102070019_OH	Bus1=511215009899_T2_lv.1.2.3	Bus2=511210207001913.1.2.3	Geometry=OH3P_FR8_N56_OH_477_AAC_OH_336_AAC_ABCN	Phases=3	Length=55.6857932718604	Units=ft
New	Line.511215009899_T3_lv_511210207002660_OH	Bus1=511215009899_T3_lv.1.2.3	Bus2=511210207002660.1.2.3	Geometry=OH3P_FR8_N56_OH_477_AAC_OH_336_AAC_ABCN	Phases=3	Length=168.15673150653387	Units=ft
New	Line.511215009900_511215009901_OH	Bus1=511215009900.1.2.3	Bus2=511215009901.1.2.3	Geometry=OH3P_FR8_N56_OH_477_AAC_OH_336_AAC_ABCN	Phases=3	Length=163.98312149411643	Units=ft
New	Line.511215009900_T1_lv_511210207002688_OH	Bus1=511215009900_T1_lv.1.2.3	Bus2=511210207002688.1.2.3	Geometry=OH3P_FR8_N56_OH_477_AAC_OH_336_AAC_ABCN	Phases=3	Length=56.450560491776855	Units=ft
New	Line.511215009900_T2_lv_5112102070019_OH	Bus1=511215009900_T2_lv.1.2.3	Bus2=511210207001911.1.2.3	Geometry=OH3P_FR8_N56_OH_477_AAC_OH_336_AAC_ABCN	Phases=3	Length=51.36611591209671	Units=ft
New	Line.511215009901_511215009902_OH	Bus1=511215009901.1.2.3	Bus2=511215009902.1.2.3	Geometry=OH3P_FR8_N56_OH_477_AAC_OH_336_AAC_ABCN	Phases=3	Length=163.9831162672223	Units=ft
New	Line.511215009901_T1_lv_511210207001908_OH	Bus1=511215009901_T1_lv.1.2.3	Bus2=511210207001908.1.2.3	Geometry=OH3P_FR8_N56_OH_477_AAC_OH_336_AAC_ABCN	Phases=3	Length=58.05161712115527	Units=ft
New	Line.511215009902_511215009903_OH	Bus1=511215009902.1.2.3	Bus2=511215009903.1.2.3	Geometry=OH3P_FR8_N56_OH_477_AAC_OH_336_AAC_ABCN	Phases=3	Length=163.9831110357049	Units=ft
New	Line.511215009902_T1_lv_511210207001914_OH	Bus1=511215009902_T1_lv.1.2.3	Bus2=511210207001914.1.2.3	Geometry=OH3P_FR8_N56_OH_477_AAC_OH_336_AAC_ABCN	Phases=3	Length=60.24485963164127	Units=ft
New	Line.511215009903_T1_lv_5112102060038_OH	Bus1=511215009903_T1_lv.1.2.3	Bus2=5112102060038.1.2.3	Geometry=OH3P_FR8_N56_OH_477_AAC_OH_336_AAC_ABCN	Phases=3	Length=57.58259103235551	Units=ft
New	Line.216375918_511215009915_OH	Bus1=216375918.1.2.3	Bus2=511215009915.1.2.3	Geometry=OH3P_FR8_N56_OH_477_AAC_OH_336_AAC_ABCN	Phases=3	Length=128.106851175811	Units=ft
New	Line.216375918_511215015558_OH	Bus1=216375918.1.2.3	Bus2=511215015558.1.2.3	Geometry=OH3P_FR8_N56_OH_477_AAC_OH_336_AAC_ABCN	Phases=3	Length=275.54092762703635	Units=ft
New	Line.216375918_511215015770_OH	Bus1=216375918.1.2.3	Bus2=511215015770.1.2.3	Geometry=OH3P_FR8_N56_OH_477_AAC_OH_336_AAC_ABCN	Phases=3	Length=53.101756325195936	Units=ft
New	Line.511215009915_511215009914_OH	Bus1=511215009915.1.2.3	Bus2=511215009914.1.2.3	Geometry=OH3P_FR8_N56_OH_477_AAC_OH_336_AAC_ABCN	Phases=3	Length=164.91414103810445	Units=ft
New	Line.511215009915_T1_lv_5112102060016_OH	Bus1=511215009915_T1_lv.1.2.3	Bus2=51121020600162.1.2.3	Geometry=OH3P_FR8_N56_OH_477_AAC_OH_336_AAC_ABCN	Phases=3	Length=59.50231975356514	Units=ft
New	Line.511215015558_T1_lv_51121020700_OH	Bus1=511215015558_T1_lv.1.2.3	Bus2=511210207002133.1.2.3	Geometry=OH3P_FR8_N56_OH_477_AAC_OH_336_AAC_ABCN	Phases=3	Length=114.54910438290557	Units=ft
New	Line.511215015770_511215015769_OH	Bus1=511215015770.1.2.3	Bus2=511215015769.1.2.3	Geometry=OH3P_FR8_N56_OH_477_AAC_OH_336_AAC_ABCN	Phases=3	Length=163.63756250369275	Units=ft
New	Line.511215015770_T1_lv_5112102060016_OH	Bus1=511215015770_T1_lv.1.2.3	Bus2=51121020600161.1.2.3	Geometry=OH3P_FR8_N56_OH_477_AAC_OH_336_AAC_ABCN	Phases=3	Length=55.81207835730604	Units=ft
New	Line.511215015770_T2_lv_51121020700217_OH	Bus1=511215015770_T2_lv.1.2.3	Bus2=511210207002172.1.2.3	Geometry=OH3P_FR8_N56_OH_477_AAC_OH_336_AAC_ABCN	Phases=3	Length=41.77996625769865	Units=ft
New	Line.726759274_511215009909_OH	Bus1=726759274.1.2.3	Bus2=511215009909.1.2.3	Geometry=OH3P_FR8_N56_OH_477_AAC_OH_336_AAC_ABCN	Phases=3	Length=151.44830788280169	Units=ft
New	Line.726759274_511215009920_OH	Bus1=726759274.1.2.3	Bus2=511215009920.1.2.3	Geometry=OH3P_FR8_N56_OH_477_AAC_OH_336_AAC_ABCN	Phases=3	Length=77.74923994741502	Units=ft
New	Line.511215009909_734844396_OH	Bus1=511215009909.1.2.3	Bus2=734844396.1.2.3	Geometry=OH3P_FR8_N56_OH_477_AAC_OH_336_AAC_ABCN	Phases=3	Length=3.28084e-12	Units=ft
New	Line.511215009909_T1_lv_511210206004_OH	Bus1=511215009909_T1_lv.1.2.3	Bus2=5112102060041.1.2.3	Geometry=OH3P_FR8_N56_OH_477_AAC_OH_336_AAC_ABCN	Phases=3	Length=76.60601599388158	Units=ft
New	Line.734844396_511215009910_OH	Bus1=734844396.1.2.3	Bus2=511215009910.1.2.3	Geometry=OH3P_FR8_N56_OH_477_AAC_OH_336_AAC_ABCN	Phases=3	Length=150.6962376805929	Units=ft
New	Line.734844396_511215009653_OH	Bus1=734844396.1.2.3	Bus2=511215009653.1.2.3	Geometry=OH3P_FR8_N56_OH_477_AAC_OH_336_AAC_ABCN	Phases=3	Length=323.73988712827503	Units=ft
New	Line.511215009910_511215009911_OH	Bus1=511215009910.1.2.3	Bus2=511215009911.1.2.3	Geometry=OH3P_FR8_N56_OH_477_AAC_OH_336_AAC_ABCN	Phases=3	Length=168.68270243052368	Units=ft
New	Line.511215009910_T1_lv_51121020700_OH	Bus1=511215009910_T1_lv.1.2.3	Bus2=511210207002112.1.2.3	Geometry=OH3P_FR8_N56_OH_477_AAC_OH_336_AAC_ABCN	Phases=3	Length=66.92349037532695	Units=ft
New	Line.511215009910_T2_lv_511210206004_OH	Bus1=511215009910_T2_lv.1.2.3	Bus2=5112102060043.1.2.3	Geometry=OH3P_FR8_N56_OH_477_AAC_OH_336_AAC_ABCN	Phases=3	Length=46.2272163811236	Units=ft
New	Line.511215009911_T1_lv_511210207002038_OH	Bus1=511215009911_T1_lv.1.2.3	Bus2=511210207002038.1.2.3	Geometry=OH3P_FR8_N56_OH_477_AAC_OH_336_AAC_ABCN	Phases=3	Length=23.21622101524219	Units=ft
New	Line.511215009912_511215009913_OH	Bus1=511215009912.1.2.3	Bus2=511215009913.1.2.3	Geometry=OH3P_FR8_N56_OH_477_AAC_OH_336_AAC_ABCN	Phases=3	Length=165.18736295471027	Units=ft
New	Line.511215009912_T1_lv_5112102060048_OH	Bus1=511215009912_T1_lv.1.2.3	Bus2=5112102060048.1.2.3	Geometry=OH3P_FR8_N56_OH_477_AAC_OH_336_AAC_ABCN	Phases=3	Length=98.17827676378182	Units=ft
New	Line.511215009913_511215009914_OH	Bus1=511215009913.1.2.3	Bus2=511215009914.1.2.3	Geometry=OH3P_FR8_N56_OH_477_AAC_OH_336_AAC_ABCN	Phases=3	Length=165.18769022312367	Units=ft
New	Line.511215009913_T1_lv_5112102060047_OH	Bus1=511215009913_T1_lv.1.2.3	Bus2=5112102060047.1.2.3	Geometry=OH3P_FR8_N56_OH_477_AAC_OH_336_AAC_ABCN	Phases=3	Length=66.72775560132344	Units=ft
New	Line.511215009914_T1_lv_5112102060016_OH	Bus1=511215009914_T1_lv.1.2.3	Bus2=51121020600163.1.2.3	Geometry=OH3P_FR8_N56_OH_477_AAC_OH_336_AAC_ABCN	Phases=3	Length=38.48481717599495	Units=ft
New	Line.511215009914_T2_lv_511210207002299_OH	Bus1=511215009914_T2_lv.1.2.3	Bus2=511210207002299.1.2.3	Geometry=OH3P_FR8_N56_OH_477_AAC_OH_336_AAC_ABCN	Phases=3	Length=90.2716385426341	Units=ft
New	Line.511215019135_T1_lv_51121020700189_OH	Bus1=511215019135_T1_lv.1.2.3	Bus2=511210207001892.1.2.3	Geometry=OH3P_FR8_N56_OH_477_AAC_OH_336_AAC_ABCN	Phases=3	Length=44.48940335983403	Units=ft
New	Line.511215009920_511215009919_OH	Bus1=511215009920.1.2.3	Bus2=511215009919.1.2.3	Geometry=OH3P_FR8_N56_OH_477_AAC_OH_336_AAC_ABCN	Phases=3	Length=328.0884491458488	Units=ft
New	Line.511215009920_T1_lv_511210206005_OH	Bus1=511215009920_T1_lv.1.2.3	Bus2=5112102060051.1.2.3	Geometry=OH3P_FR8_N56_OH_477_AAC_OH_336_AAC_ABCN	Phases=3	Length=18.882917806478698	Units=ft
New	Line.511215009919_T1_lv_511210206005_OH	Bus1=511215009919_T1_lv.1.2.3	Bus2=5112102060053.1.2.3	Geometry=OH3P_FR8_N56_OH_477_AAC_OH_336_AAC_ABCN	Phases=3	Length=54.30418167449073	Units=ft
New	Line.511215009924_511215009925_OH	Bus1=511215009924.1.2.3	Bus2=511215009925.1.2.3	Geometry=OH3P_FR8_N56_OH_477_AAC_OH_336_AAC_ABCN	Phases=3	Length=164.93097344672702	Units=ft
New	Line.511215009924_T1_lv_5112102060054_OH	Bus1=511215009924_T1_lv.1.2.3	Bus2=5112102060054.1.2.3	Geometry=OH3P_FR8_N56_OH_477_AAC_OH_336_AAC_ABCN	Phases=3	Length=129.12916025108453	Units=ft
New	Line.511215009925_T1_lv_5112102060055_OH	Bus1=511215009925_T1_lv.1.2.3	Bus2=5112102060055.1.2.3	Geometry=OH3P_FR8_N56_OH_477_AAC_OH_336_AAC_ABCN	Phases=3	Length=32.850200431420284	Units=ft
New	Line.511215019185_734843266_OH	Bus1=511215019185.1.2.3	Bus2=734843266.1.2.3	Geometry=OH3P_FR8_N56_OH_477_AAC_OH_336_AAC_ABCN	Phases=3	Length=6.214940264311879e-09	Units=ft
New	Line.511215019185_T1_lv_5112102070017_OH	Bus1=511215019185_T1_lv.1.2.3	Bus2=511210207001723.1.2.3	Geometry=OH3P_FR8_N56_OH_477_AAC_OH_336_AAC_ABCN	Phases=3	Length=35.784076803643906	Units=ft
New	Line.734843266_511215004647_OH	Bus1=734843266.1.2.3	Bus2=511215004647.1.2.3	Geometry=OH3P_FR8_N56_OH_477_AAC_OH_336_AAC_ABCN	Phases=3	Length=266.690583435084	Units=ft
New	Line.216485097_511215004638_OH	Bus1=216485097.1.2.3	Bus2=511215004638.1.2.3	Geometry=OH3P_FR8_N56_OH_477_AAC_OH_336_AAC_ABCN	Phases=3	Length=243.42028720346656	Units=ft
New	Line.216485097_511215016218_OH	Bus1=216485097.1.2.3	Bus2=511215016218.1.2.3	Geometry=OH3P_FR8_N56_OH_477_AAC_OH_336_AAC_ABCN	Phases=3	Length=259.0456989499425	Units=ft
New	Line.511215004638_511215004637_OH	Bus1=511215004638.1.2.3	Bus2=511215004637.1.2.3	Geometry=OH3P_FR8_N56_OH_477_AAC_OH_336_AAC_ABCN	Phases=3	Length=324.85079126108553	Units=ft
New	Line.511215004638_T1_lv_5112102070016_OH	Bus1=511215004638_T1_lv.1.2.3	Bus2=511210207001611.1.2.3	Geometry=OH3P_FR8_N56_OH_477_AAC_OH_336_AAC_ABCN	Phases=3	Length=45.16244327737265	Units=ft
New	Line.511215016218_511215016217_OH	Bus1=511215016218.1.2.3	Bus2=511215016217.1.2.3	Geometry=OH3P_FR8_N56_OH_477_AAC_OH_336_AAC_ABCN	Phases=3	Length=147.6213801058545	Units=ft
New	Line.511215016218_T1_lv_511210207001707_OH	Bus1=511215016218_T1_lv.1.2.3	Bus2=511210207001707.1.2.3	Geometry=OH3P_FR8_N56_OH_477_AAC_OH_336_AAC_ABCN	Phases=3	Length=29.70876291779311	Units=ft
New	Line.511215019004_511215019003_OH	Bus1=511215019004.1.2.3	Bus2=511215019003.1.2.3	Geometry=OH3P_FR8_N56_OH_477_AAC_OH_336_AAC_ABCN	Phases=3	Length=164.0420140986386	Units=ft
New	Line.511215019004_T1_lv_511210207001894_OH	Bus1=511215019004_T1_lv.1.2.3	Bus2=511210207001894.1.2.3	Geometry=OH3P_FR8_N56_OH_477_AAC_OH_336_AAC_ABCN	Phases=3	Length=115.6394621175805	Units=ft
New	Line.511215016216_511215016217_OH	Bus1=511215016216.1.2.3	Bus2=511215016217.1.2.3	Geometry=OH3P_FR8_N56_OH_477_AAC_OH_336_AAC_ABCN	Phases=3	Length=342.21631185834684	Units=ft
New	Line.511215016216_T1_lv_5112102070019_OH	Bus1=511215016216_T1_lv.1.2.3	Bus2=511210207001931.1.2.3	Geometry=OH3P_FR8_N56_OH_477_AAC_OH_336_AAC_ABCN	Phases=3	Length=149.32507581622585	Units=ft
New	Line.511215016216_T2_lv_51121020700270_OH	Bus1=511215016216_T2_lv.1.2.3	Bus2=511210207002703.1.2.3	Geometry=OH3P_FR8_N56_OH_477_AAC_OH_336_AAC_ABCN	Phases=3	Length=109.82420387939527	Units=ft
New	Line.511215016217_T1_lv_511210207001708_OH	Bus1=511215016217_T1_lv.1.2.3	Bus2=511210207001708.1.2.3	Geometry=OH3P_FR8_N56_OH_477_AAC_OH_336_AAC_ABCN	Phases=3	Length=100.06372331235632	Units=ft
New	Line.511215015769_T1_lv_51121020600160_OH	Bus1=511215015769_T1_lv.1.2.3	Bus2=51121020600160.1.2.3	Geometry=OH3P_FR8_N56_OH_477_AAC_OH_336_AAC_ABCN	Phases=3	Length=50.13140700828691	Units=ft
New	Line.511215009653_511215009654_OH	Bus1=511215009653.1.2.3	Bus2=511215009654.1.2.3	Geometry=OH3P_FR8_N56_OH_477_AAC_OH_336_AAC_ABCN	Phases=3	Length=163.84108092884358	Units=ft
New	Line.511215009653_T1_lv_511210207002119_OH	Bus1=511215009653_T1_lv.1.2.3	Bus2=511210207002119.1.2.3	Geometry=OH3P_FR8_N56_OH_477_AAC_OH_336_AAC_ABCN	Phases=3	Length=14.694662770990105	Units=ft
New	Line.511215009654_511215009655_OH	Bus1=511215009654.1.2.3	Bus2=511215009655.1.2.3	Geometry=OH3P_FR8_N56_OH_477_AAC_OH_336_AAC_ABCN	Phases=3	Length=165.20219620973185	Units=ft
New	Line.511215009654_T1_lv_5112102060045_OH	Bus1=511215009654_T1_lv.1.2.3	Bus2=5112102060045.1.2.3	Geometry=OH3P_FR8_N56_OH_477_AAC_OH_336_AAC_ABCN	Phases=3	Length=27.799445379281646	Units=ft
New	Line.511215009654_T2_lv_511210207002110_OH	Bus1=511215009654_T2_lv.1.2.3	Bus2=511210207002110.1.2.3	Geometry=OH3P_FR8_N56_OH_477_AAC_OH_336_AAC_ABCN	Phases=3	Length=64.75385005225253	Units=ft
New	Line.511215009655_216400763_OH	Bus1=511215009655.1.2.3	Bus2=216400763.1.2.3	Geometry=OH3P_FR8_N56_OH_477_AAC_OH_336_AAC_ABCN	Phases=3	Length=100.22953698688539	Units=ft
New	Line.511215009655_T1_lv_5112102060025_OH	Bus1=511215009655_T1_lv.1.2.3	Bus2=5112102060025.1.2.3	Geometry=OH3P_FR8_N56_OH_477_AAC_OH_336_AAC_ABCN	Phases=3	Length=59.385122810667596	Units=ft
New	Line.511215009655_T2_lv_511210207002045_OH	Bus1=511215009655_T2_lv.1.2.3	Bus2=511210207002045.1.2.3	Geometry=OH3P_FR8_N56_OH_477_AAC_OH_336_AAC_ABCN	Phases=3	Length=83.83296940081418	Units=ft
...